*SPEF "ieee 1481-1999"
*DESIGN "user_project_wrapper"
*DATE "11:11:11 Fri 11 11, 1111"
*VENDOR "OpenRCX"
*PROGRAM "Parallel Extraction"
*VERSION "1.0"
*DESIGN_FLOW "NAME_SCOPE LOCAL" "PIN_CAP NONE"
*DIVIDER /
*DELIMITER :
*BUS_DELIMITER []
*T_UNIT 1 NS
*C_UNIT 1 PF
*R_UNIT 1 OHM
*L_UNIT 1 HENRY

*NAME_MAP
*1 analog_io[0]
*2 analog_io[10]
*3 analog_io[11]
*4 analog_io[12]
*5 analog_io[13]
*6 analog_io[14]
*7 analog_io[15]
*8 analog_io[16]
*9 analog_io[17]
*10 analog_io[18]
*11 analog_io[19]
*12 analog_io[1]
*13 analog_io[20]
*14 analog_io[21]
*15 analog_io[22]
*16 analog_io[23]
*17 analog_io[24]
*18 analog_io[25]
*19 analog_io[26]
*20 analog_io[27]
*21 analog_io[28]
*22 analog_io[2]
*23 analog_io[3]
*24 analog_io[4]
*25 analog_io[5]
*26 analog_io[6]
*27 analog_io[7]
*28 analog_io[8]
*29 analog_io[9]
*30 io_in[0]
*31 io_in[10]
*32 io_in[11]
*33 io_in[12]
*34 io_in[13]
*35 io_in[14]
*36 io_in[15]
*37 io_in[16]
*38 io_in[17]
*39 io_in[18]
*40 io_in[19]
*41 io_in[1]
*42 io_in[20]
*43 io_in[21]
*44 io_in[22]
*45 io_in[23]
*46 io_in[24]
*47 io_in[25]
*48 io_in[26]
*49 io_in[27]
*50 io_in[28]
*51 io_in[29]
*52 io_in[2]
*53 io_in[30]
*54 io_in[31]
*55 io_in[32]
*56 io_in[33]
*57 io_in[34]
*58 io_in[35]
*59 io_in[36]
*60 io_in[37]
*61 io_in[3]
*62 io_in[4]
*63 io_in[5]
*64 io_in[6]
*65 io_in[7]
*66 io_in[8]
*67 io_in[9]
*68 io_oeb[0]
*69 io_oeb[10]
*70 io_oeb[11]
*71 io_oeb[12]
*72 io_oeb[13]
*73 io_oeb[14]
*74 io_oeb[15]
*75 io_oeb[16]
*76 io_oeb[17]
*77 io_oeb[18]
*78 io_oeb[19]
*79 io_oeb[1]
*80 io_oeb[20]
*81 io_oeb[21]
*82 io_oeb[22]
*83 io_oeb[23]
*84 io_oeb[24]
*85 io_oeb[25]
*86 io_oeb[26]
*87 io_oeb[27]
*88 io_oeb[28]
*89 io_oeb[29]
*90 io_oeb[2]
*91 io_oeb[30]
*92 io_oeb[31]
*93 io_oeb[32]
*94 io_oeb[33]
*95 io_oeb[34]
*96 io_oeb[35]
*97 io_oeb[36]
*98 io_oeb[37]
*99 io_oeb[3]
*100 io_oeb[4]
*101 io_oeb[5]
*102 io_oeb[6]
*103 io_oeb[7]
*104 io_oeb[8]
*105 io_oeb[9]
*106 io_out[0]
*107 io_out[10]
*108 io_out[11]
*109 io_out[12]
*110 io_out[13]
*111 io_out[14]
*112 io_out[15]
*113 io_out[16]
*114 io_out[17]
*115 io_out[18]
*116 io_out[19]
*117 io_out[1]
*118 io_out[20]
*119 io_out[21]
*120 io_out[22]
*121 io_out[23]
*122 io_out[24]
*123 io_out[25]
*124 io_out[26]
*125 io_out[27]
*126 io_out[28]
*127 io_out[29]
*128 io_out[2]
*129 io_out[30]
*130 io_out[31]
*131 io_out[32]
*132 io_out[33]
*133 io_out[34]
*134 io_out[35]
*135 io_out[36]
*136 io_out[37]
*137 io_out[3]
*138 io_out[4]
*139 io_out[5]
*140 io_out[6]
*141 io_out[7]
*142 io_out[8]
*143 io_out[9]
*144 la_data_in[0]
*145 la_data_in[100]
*146 la_data_in[101]
*147 la_data_in[102]
*148 la_data_in[103]
*149 la_data_in[104]
*150 la_data_in[105]
*151 la_data_in[106]
*152 la_data_in[107]
*153 la_data_in[108]
*154 la_data_in[109]
*155 la_data_in[10]
*156 la_data_in[110]
*157 la_data_in[111]
*158 la_data_in[112]
*159 la_data_in[113]
*160 la_data_in[114]
*161 la_data_in[115]
*162 la_data_in[116]
*163 la_data_in[117]
*164 la_data_in[118]
*165 la_data_in[119]
*166 la_data_in[11]
*167 la_data_in[120]
*168 la_data_in[121]
*169 la_data_in[122]
*170 la_data_in[123]
*171 la_data_in[124]
*172 la_data_in[125]
*173 la_data_in[126]
*174 la_data_in[127]
*175 la_data_in[12]
*176 la_data_in[13]
*177 la_data_in[14]
*178 la_data_in[15]
*179 la_data_in[16]
*180 la_data_in[17]
*181 la_data_in[18]
*182 la_data_in[19]
*183 la_data_in[1]
*184 la_data_in[20]
*185 la_data_in[21]
*186 la_data_in[22]
*187 la_data_in[23]
*188 la_data_in[24]
*189 la_data_in[25]
*190 la_data_in[26]
*191 la_data_in[27]
*192 la_data_in[28]
*193 la_data_in[29]
*194 la_data_in[2]
*195 la_data_in[30]
*196 la_data_in[31]
*197 la_data_in[32]
*198 la_data_in[33]
*199 la_data_in[34]
*200 la_data_in[35]
*201 la_data_in[36]
*202 la_data_in[37]
*203 la_data_in[38]
*204 la_data_in[39]
*205 la_data_in[3]
*206 la_data_in[40]
*207 la_data_in[41]
*208 la_data_in[42]
*209 la_data_in[43]
*210 la_data_in[44]
*211 la_data_in[45]
*212 la_data_in[46]
*213 la_data_in[47]
*214 la_data_in[48]
*215 la_data_in[49]
*216 la_data_in[4]
*217 la_data_in[50]
*218 la_data_in[51]
*219 la_data_in[52]
*220 la_data_in[53]
*221 la_data_in[54]
*222 la_data_in[55]
*223 la_data_in[56]
*224 la_data_in[57]
*225 la_data_in[58]
*226 la_data_in[59]
*227 la_data_in[5]
*228 la_data_in[60]
*229 la_data_in[61]
*230 la_data_in[62]
*231 la_data_in[63]
*232 la_data_in[64]
*233 la_data_in[65]
*234 la_data_in[66]
*235 la_data_in[67]
*236 la_data_in[68]
*237 la_data_in[69]
*238 la_data_in[6]
*239 la_data_in[70]
*240 la_data_in[71]
*241 la_data_in[72]
*242 la_data_in[73]
*243 la_data_in[74]
*244 la_data_in[75]
*245 la_data_in[76]
*246 la_data_in[77]
*247 la_data_in[78]
*248 la_data_in[79]
*249 la_data_in[7]
*250 la_data_in[80]
*251 la_data_in[81]
*252 la_data_in[82]
*253 la_data_in[83]
*254 la_data_in[84]
*255 la_data_in[85]
*256 la_data_in[86]
*257 la_data_in[87]
*258 la_data_in[88]
*259 la_data_in[89]
*260 la_data_in[8]
*261 la_data_in[90]
*262 la_data_in[91]
*263 la_data_in[92]
*264 la_data_in[93]
*265 la_data_in[94]
*266 la_data_in[95]
*267 la_data_in[96]
*268 la_data_in[97]
*269 la_data_in[98]
*270 la_data_in[99]
*271 la_data_in[9]
*272 la_data_out[0]
*273 la_data_out[100]
*274 la_data_out[101]
*275 la_data_out[102]
*276 la_data_out[103]
*277 la_data_out[104]
*278 la_data_out[105]
*279 la_data_out[106]
*280 la_data_out[107]
*281 la_data_out[108]
*282 la_data_out[109]
*283 la_data_out[10]
*284 la_data_out[110]
*285 la_data_out[111]
*286 la_data_out[112]
*287 la_data_out[113]
*288 la_data_out[114]
*289 la_data_out[115]
*290 la_data_out[116]
*291 la_data_out[117]
*292 la_data_out[118]
*293 la_data_out[119]
*294 la_data_out[11]
*295 la_data_out[120]
*296 la_data_out[121]
*297 la_data_out[122]
*298 la_data_out[123]
*299 la_data_out[124]
*300 la_data_out[125]
*301 la_data_out[126]
*302 la_data_out[127]
*303 la_data_out[12]
*304 la_data_out[13]
*305 la_data_out[14]
*306 la_data_out[15]
*307 la_data_out[16]
*308 la_data_out[17]
*309 la_data_out[18]
*310 la_data_out[19]
*311 la_data_out[1]
*312 la_data_out[20]
*313 la_data_out[21]
*314 la_data_out[22]
*315 la_data_out[23]
*316 la_data_out[24]
*317 la_data_out[25]
*318 la_data_out[26]
*319 la_data_out[27]
*320 la_data_out[28]
*321 la_data_out[29]
*322 la_data_out[2]
*323 la_data_out[30]
*324 la_data_out[31]
*325 la_data_out[32]
*326 la_data_out[33]
*327 la_data_out[34]
*328 la_data_out[35]
*329 la_data_out[36]
*330 la_data_out[37]
*331 la_data_out[38]
*332 la_data_out[39]
*333 la_data_out[3]
*334 la_data_out[40]
*335 la_data_out[41]
*336 la_data_out[42]
*337 la_data_out[43]
*338 la_data_out[44]
*339 la_data_out[45]
*340 la_data_out[46]
*341 la_data_out[47]
*342 la_data_out[48]
*343 la_data_out[49]
*344 la_data_out[4]
*345 la_data_out[50]
*346 la_data_out[51]
*347 la_data_out[52]
*348 la_data_out[53]
*349 la_data_out[54]
*350 la_data_out[55]
*351 la_data_out[56]
*352 la_data_out[57]
*353 la_data_out[58]
*354 la_data_out[59]
*355 la_data_out[5]
*356 la_data_out[60]
*357 la_data_out[61]
*358 la_data_out[62]
*359 la_data_out[63]
*360 la_data_out[64]
*361 la_data_out[65]
*362 la_data_out[66]
*363 la_data_out[67]
*364 la_data_out[68]
*365 la_data_out[69]
*366 la_data_out[6]
*367 la_data_out[70]
*368 la_data_out[71]
*369 la_data_out[72]
*370 la_data_out[73]
*371 la_data_out[74]
*372 la_data_out[75]
*373 la_data_out[76]
*374 la_data_out[77]
*375 la_data_out[78]
*376 la_data_out[79]
*377 la_data_out[7]
*378 la_data_out[80]
*379 la_data_out[81]
*380 la_data_out[82]
*381 la_data_out[83]
*382 la_data_out[84]
*383 la_data_out[85]
*384 la_data_out[86]
*385 la_data_out[87]
*386 la_data_out[88]
*387 la_data_out[89]
*388 la_data_out[8]
*389 la_data_out[90]
*390 la_data_out[91]
*391 la_data_out[92]
*392 la_data_out[93]
*393 la_data_out[94]
*394 la_data_out[95]
*395 la_data_out[96]
*396 la_data_out[97]
*397 la_data_out[98]
*398 la_data_out[99]
*399 la_data_out[9]
*400 la_oenb[0]
*401 la_oenb[100]
*402 la_oenb[101]
*403 la_oenb[102]
*404 la_oenb[103]
*405 la_oenb[104]
*406 la_oenb[105]
*407 la_oenb[106]
*408 la_oenb[107]
*409 la_oenb[108]
*410 la_oenb[109]
*411 la_oenb[10]
*412 la_oenb[110]
*413 la_oenb[111]
*414 la_oenb[112]
*415 la_oenb[113]
*416 la_oenb[114]
*417 la_oenb[115]
*418 la_oenb[116]
*419 la_oenb[117]
*420 la_oenb[118]
*421 la_oenb[119]
*422 la_oenb[11]
*423 la_oenb[120]
*424 la_oenb[121]
*425 la_oenb[122]
*426 la_oenb[123]
*427 la_oenb[124]
*428 la_oenb[125]
*429 la_oenb[126]
*430 la_oenb[127]
*431 la_oenb[12]
*432 la_oenb[13]
*433 la_oenb[14]
*434 la_oenb[15]
*435 la_oenb[16]
*436 la_oenb[17]
*437 la_oenb[18]
*438 la_oenb[19]
*439 la_oenb[1]
*440 la_oenb[20]
*441 la_oenb[21]
*442 la_oenb[22]
*443 la_oenb[23]
*444 la_oenb[24]
*445 la_oenb[25]
*446 la_oenb[26]
*447 la_oenb[27]
*448 la_oenb[28]
*449 la_oenb[29]
*450 la_oenb[2]
*451 la_oenb[30]
*452 la_oenb[31]
*453 la_oenb[32]
*454 la_oenb[33]
*455 la_oenb[34]
*456 la_oenb[35]
*457 la_oenb[36]
*458 la_oenb[37]
*459 la_oenb[38]
*460 la_oenb[39]
*461 la_oenb[3]
*462 la_oenb[40]
*463 la_oenb[41]
*464 la_oenb[42]
*465 la_oenb[43]
*466 la_oenb[44]
*467 la_oenb[45]
*468 la_oenb[46]
*469 la_oenb[47]
*470 la_oenb[48]
*471 la_oenb[49]
*472 la_oenb[4]
*473 la_oenb[50]
*474 la_oenb[51]
*475 la_oenb[52]
*476 la_oenb[53]
*477 la_oenb[54]
*478 la_oenb[55]
*479 la_oenb[56]
*480 la_oenb[57]
*481 la_oenb[58]
*482 la_oenb[59]
*483 la_oenb[5]
*484 la_oenb[60]
*485 la_oenb[61]
*486 la_oenb[62]
*487 la_oenb[63]
*488 la_oenb[64]
*489 la_oenb[65]
*490 la_oenb[66]
*491 la_oenb[67]
*492 la_oenb[68]
*493 la_oenb[69]
*494 la_oenb[6]
*495 la_oenb[70]
*496 la_oenb[71]
*497 la_oenb[72]
*498 la_oenb[73]
*499 la_oenb[74]
*500 la_oenb[75]
*501 la_oenb[76]
*502 la_oenb[77]
*503 la_oenb[78]
*504 la_oenb[79]
*505 la_oenb[7]
*506 la_oenb[80]
*507 la_oenb[81]
*508 la_oenb[82]
*509 la_oenb[83]
*510 la_oenb[84]
*511 la_oenb[85]
*512 la_oenb[86]
*513 la_oenb[87]
*514 la_oenb[88]
*515 la_oenb[89]
*516 la_oenb[8]
*517 la_oenb[90]
*518 la_oenb[91]
*519 la_oenb[92]
*520 la_oenb[93]
*521 la_oenb[94]
*522 la_oenb[95]
*523 la_oenb[96]
*524 la_oenb[97]
*525 la_oenb[98]
*526 la_oenb[99]
*527 la_oenb[9]
*528 user_clock2
*529 user_irq[0]
*530 user_irq[1]
*531 user_irq[2]
*540 wb_clk_i
*541 wb_rst_i
*542 wbs_ack_o
*543 wbs_adr_i[0]
*544 wbs_adr_i[10]
*545 wbs_adr_i[11]
*546 wbs_adr_i[12]
*547 wbs_adr_i[13]
*548 wbs_adr_i[14]
*549 wbs_adr_i[15]
*550 wbs_adr_i[16]
*551 wbs_adr_i[17]
*552 wbs_adr_i[18]
*553 wbs_adr_i[19]
*554 wbs_adr_i[1]
*555 wbs_adr_i[20]
*556 wbs_adr_i[21]
*557 wbs_adr_i[22]
*558 wbs_adr_i[23]
*559 wbs_adr_i[24]
*560 wbs_adr_i[25]
*561 wbs_adr_i[26]
*562 wbs_adr_i[27]
*563 wbs_adr_i[28]
*564 wbs_adr_i[29]
*565 wbs_adr_i[2]
*566 wbs_adr_i[30]
*567 wbs_adr_i[31]
*568 wbs_adr_i[3]
*569 wbs_adr_i[4]
*570 wbs_adr_i[5]
*571 wbs_adr_i[6]
*572 wbs_adr_i[7]
*573 wbs_adr_i[8]
*574 wbs_adr_i[9]
*575 wbs_cyc_i
*576 wbs_dat_i[0]
*577 wbs_dat_i[10]
*578 wbs_dat_i[11]
*579 wbs_dat_i[12]
*580 wbs_dat_i[13]
*581 wbs_dat_i[14]
*582 wbs_dat_i[15]
*583 wbs_dat_i[16]
*584 wbs_dat_i[17]
*585 wbs_dat_i[18]
*586 wbs_dat_i[19]
*587 wbs_dat_i[1]
*588 wbs_dat_i[20]
*589 wbs_dat_i[21]
*590 wbs_dat_i[22]
*591 wbs_dat_i[23]
*592 wbs_dat_i[24]
*593 wbs_dat_i[25]
*594 wbs_dat_i[26]
*595 wbs_dat_i[27]
*596 wbs_dat_i[28]
*597 wbs_dat_i[29]
*598 wbs_dat_i[2]
*599 wbs_dat_i[30]
*600 wbs_dat_i[31]
*601 wbs_dat_i[3]
*602 wbs_dat_i[4]
*603 wbs_dat_i[5]
*604 wbs_dat_i[6]
*605 wbs_dat_i[7]
*606 wbs_dat_i[8]
*607 wbs_dat_i[9]
*608 wbs_dat_o[0]
*609 wbs_dat_o[10]
*610 wbs_dat_o[11]
*611 wbs_dat_o[12]
*612 wbs_dat_o[13]
*613 wbs_dat_o[14]
*614 wbs_dat_o[15]
*615 wbs_dat_o[16]
*616 wbs_dat_o[17]
*617 wbs_dat_o[18]
*618 wbs_dat_o[19]
*619 wbs_dat_o[1]
*620 wbs_dat_o[20]
*621 wbs_dat_o[21]
*622 wbs_dat_o[22]
*623 wbs_dat_o[23]
*624 wbs_dat_o[24]
*625 wbs_dat_o[25]
*626 wbs_dat_o[26]
*627 wbs_dat_o[27]
*628 wbs_dat_o[28]
*629 wbs_dat_o[29]
*630 wbs_dat_o[2]
*631 wbs_dat_o[30]
*632 wbs_dat_o[31]
*633 wbs_dat_o[3]
*634 wbs_dat_o[4]
*635 wbs_dat_o[5]
*636 wbs_dat_o[6]
*637 wbs_dat_o[7]
*638 wbs_dat_o[8]
*639 wbs_dat_o[9]
*640 wbs_sel_i[0]
*641 wbs_sel_i[1]
*642 wbs_sel_i[2]
*643 wbs_sel_i[3]
*644 wbs_stb_i
*645 wbs_we_i
*646 clk\[0\]
*647 clk\[100\]
*648 clk\[101\]
*649 clk\[102\]
*650 clk\[103\]
*651 clk\[104\]
*652 clk\[105\]
*653 clk\[106\]
*654 clk\[107\]
*655 clk\[108\]
*656 clk\[109\]
*657 clk\[10\]
*658 clk\[110\]
*659 clk\[111\]
*660 clk\[112\]
*661 clk\[113\]
*662 clk\[114\]
*663 clk\[115\]
*664 clk\[116\]
*665 clk\[117\]
*666 clk\[118\]
*667 clk\[119\]
*668 clk\[11\]
*669 clk\[120\]
*670 clk\[121\]
*671 clk\[122\]
*672 clk\[123\]
*673 clk\[124\]
*674 clk\[125\]
*675 clk\[126\]
*676 clk\[127\]
*677 clk\[128\]
*678 clk\[129\]
*679 clk\[12\]
*680 clk\[130\]
*681 clk\[131\]
*682 clk\[132\]
*683 clk\[133\]
*684 clk\[134\]
*685 clk\[135\]
*686 clk\[136\]
*687 clk\[137\]
*688 clk\[138\]
*689 clk\[139\]
*690 clk\[13\]
*691 clk\[140\]
*692 clk\[141\]
*693 clk\[142\]
*694 clk\[143\]
*695 clk\[144\]
*696 clk\[145\]
*697 clk\[146\]
*698 clk\[147\]
*699 clk\[148\]
*700 clk\[149\]
*701 clk\[14\]
*702 clk\[150\]
*703 clk\[151\]
*704 clk\[152\]
*705 clk\[153\]
*706 clk\[154\]
*707 clk\[155\]
*708 clk\[156\]
*709 clk\[157\]
*710 clk\[158\]
*711 clk\[159\]
*712 clk\[15\]
*713 clk\[160\]
*714 clk\[161\]
*715 clk\[162\]
*716 clk\[163\]
*717 clk\[164\]
*718 clk\[165\]
*719 clk\[166\]
*720 clk\[167\]
*721 clk\[168\]
*722 clk\[169\]
*723 clk\[16\]
*724 clk\[170\]
*725 clk\[171\]
*726 clk\[172\]
*727 clk\[173\]
*728 clk\[174\]
*729 clk\[175\]
*730 clk\[176\]
*731 clk\[177\]
*732 clk\[178\]
*733 clk\[179\]
*734 clk\[17\]
*735 clk\[180\]
*736 clk\[181\]
*737 clk\[182\]
*738 clk\[183\]
*739 clk\[184\]
*740 clk\[185\]
*741 clk\[186\]
*742 clk\[187\]
*743 clk\[188\]
*744 clk\[189\]
*745 clk\[18\]
*746 clk\[190\]
*747 clk\[191\]
*748 clk\[192\]
*749 clk\[193\]
*750 clk\[194\]
*751 clk\[195\]
*752 clk\[196\]
*753 clk\[197\]
*754 clk\[198\]
*755 clk\[199\]
*756 clk\[19\]
*757 clk\[1\]
*758 clk\[200\]
*759 clk\[201\]
*760 clk\[202\]
*761 clk\[203\]
*762 clk\[204\]
*763 clk\[205\]
*764 clk\[206\]
*765 clk\[207\]
*766 clk\[208\]
*767 clk\[209\]
*768 clk\[20\]
*769 clk\[210\]
*770 clk\[211\]
*771 clk\[212\]
*772 clk\[213\]
*773 clk\[214\]
*774 clk\[215\]
*775 clk\[216\]
*776 clk\[217\]
*777 clk\[218\]
*778 clk\[219\]
*779 clk\[21\]
*780 clk\[220\]
*781 clk\[221\]
*782 clk\[222\]
*783 clk\[223\]
*784 clk\[224\]
*785 clk\[225\]
*786 clk\[226\]
*787 clk\[227\]
*788 clk\[228\]
*789 clk\[229\]
*790 clk\[22\]
*791 clk\[230\]
*792 clk\[231\]
*793 clk\[232\]
*794 clk\[233\]
*795 clk\[234\]
*796 clk\[235\]
*797 clk\[236\]
*798 clk\[237\]
*799 clk\[238\]
*800 clk\[239\]
*801 clk\[23\]
*802 clk\[240\]
*803 clk\[241\]
*804 clk\[242\]
*805 clk\[243\]
*806 clk\[244\]
*807 clk\[245\]
*808 clk\[246\]
*809 clk\[247\]
*810 clk\[248\]
*811 clk\[249\]
*812 clk\[24\]
*813 clk\[250\]
*814 clk\[251\]
*815 clk\[252\]
*816 clk\[253\]
*817 clk\[254\]
*818 clk\[255\]
*819 clk\[256\]
*820 clk\[257\]
*821 clk\[258\]
*822 clk\[259\]
*823 clk\[25\]
*824 clk\[260\]
*825 clk\[261\]
*826 clk\[262\]
*827 clk\[263\]
*828 clk\[264\]
*829 clk\[265\]
*830 clk\[266\]
*831 clk\[267\]
*832 clk\[268\]
*833 clk\[269\]
*834 clk\[26\]
*835 clk\[270\]
*836 clk\[271\]
*837 clk\[272\]
*838 clk\[273\]
*839 clk\[274\]
*840 clk\[275\]
*841 clk\[276\]
*842 clk\[277\]
*843 clk\[278\]
*844 clk\[279\]
*845 clk\[27\]
*846 clk\[280\]
*847 clk\[281\]
*848 clk\[282\]
*849 clk\[283\]
*850 clk\[284\]
*851 clk\[285\]
*852 clk\[286\]
*853 clk\[287\]
*854 clk\[288\]
*855 clk\[289\]
*856 clk\[28\]
*857 clk\[290\]
*858 clk\[291\]
*859 clk\[292\]
*860 clk\[293\]
*861 clk\[294\]
*862 clk\[295\]
*863 clk\[296\]
*864 clk\[297\]
*865 clk\[298\]
*866 clk\[299\]
*867 clk\[29\]
*868 clk\[2\]
*869 clk\[300\]
*870 clk\[301\]
*871 clk\[302\]
*872 clk\[303\]
*873 clk\[304\]
*874 clk\[305\]
*875 clk\[306\]
*876 clk\[307\]
*877 clk\[308\]
*878 clk\[309\]
*879 clk\[30\]
*880 clk\[310\]
*881 clk\[311\]
*882 clk\[312\]
*883 clk\[313\]
*884 clk\[314\]
*885 clk\[315\]
*886 clk\[316\]
*887 clk\[317\]
*888 clk\[318\]
*889 clk\[319\]
*890 clk\[31\]
*891 clk\[320\]
*892 clk\[321\]
*893 clk\[322\]
*894 clk\[323\]
*895 clk\[324\]
*896 clk\[325\]
*897 clk\[326\]
*898 clk\[327\]
*899 clk\[328\]
*900 clk\[329\]
*901 clk\[32\]
*902 clk\[330\]
*903 clk\[331\]
*904 clk\[332\]
*905 clk\[333\]
*906 clk\[334\]
*907 clk\[335\]
*908 clk\[336\]
*909 clk\[337\]
*910 clk\[338\]
*911 clk\[339\]
*912 clk\[33\]
*913 clk\[340\]
*914 clk\[341\]
*915 clk\[342\]
*916 clk\[343\]
*917 clk\[344\]
*918 clk\[345\]
*919 clk\[346\]
*920 clk\[347\]
*921 clk\[348\]
*922 clk\[349\]
*923 clk\[34\]
*924 clk\[350\]
*925 clk\[351\]
*926 clk\[352\]
*927 clk\[353\]
*928 clk\[354\]
*929 clk\[355\]
*930 clk\[356\]
*931 clk\[357\]
*932 clk\[358\]
*933 clk\[359\]
*934 clk\[35\]
*935 clk\[360\]
*936 clk\[361\]
*937 clk\[362\]
*938 clk\[363\]
*939 clk\[364\]
*940 clk\[365\]
*941 clk\[366\]
*942 clk\[367\]
*943 clk\[368\]
*944 clk\[369\]
*945 clk\[36\]
*946 clk\[370\]
*947 clk\[371\]
*948 clk\[372\]
*949 clk\[373\]
*950 clk\[374\]
*951 clk\[375\]
*952 clk\[376\]
*953 clk\[377\]
*954 clk\[378\]
*955 clk\[379\]
*956 clk\[37\]
*957 clk\[380\]
*958 clk\[381\]
*959 clk\[382\]
*960 clk\[383\]
*961 clk\[384\]
*962 clk\[385\]
*963 clk\[386\]
*964 clk\[387\]
*965 clk\[388\]
*966 clk\[389\]
*967 clk\[38\]
*968 clk\[390\]
*969 clk\[391\]
*970 clk\[392\]
*971 clk\[393\]
*972 clk\[394\]
*973 clk\[395\]
*974 clk\[396\]
*975 clk\[397\]
*976 clk\[398\]
*977 clk\[399\]
*978 clk\[39\]
*979 clk\[3\]
*980 clk\[400\]
*981 clk\[401\]
*982 clk\[402\]
*983 clk\[403\]
*984 clk\[404\]
*985 clk\[405\]
*986 clk\[406\]
*987 clk\[407\]
*988 clk\[408\]
*989 clk\[409\]
*990 clk\[40\]
*991 clk\[410\]
*992 clk\[411\]
*993 clk\[412\]
*994 clk\[413\]
*995 clk\[414\]
*996 clk\[415\]
*997 clk\[416\]
*998 clk\[417\]
*999 clk\[418\]
*1000 clk\[419\]
*1001 clk\[41\]
*1002 clk\[420\]
*1003 clk\[421\]
*1004 clk\[422\]
*1005 clk\[423\]
*1006 clk\[424\]
*1007 clk\[425\]
*1008 clk\[426\]
*1009 clk\[427\]
*1010 clk\[428\]
*1011 clk\[429\]
*1012 clk\[42\]
*1013 clk\[430\]
*1014 clk\[431\]
*1015 clk\[432\]
*1016 clk\[433\]
*1017 clk\[434\]
*1018 clk\[435\]
*1019 clk\[436\]
*1020 clk\[437\]
*1021 clk\[438\]
*1022 clk\[439\]
*1023 clk\[43\]
*1024 clk\[440\]
*1025 clk\[441\]
*1026 clk\[442\]
*1027 clk\[443\]
*1028 clk\[444\]
*1029 clk\[445\]
*1030 clk\[446\]
*1031 clk\[447\]
*1032 clk\[448\]
*1033 clk\[449\]
*1034 clk\[44\]
*1035 clk\[450\]
*1036 clk\[451\]
*1037 clk\[452\]
*1038 clk\[453\]
*1039 clk\[454\]
*1040 clk\[455\]
*1041 clk\[456\]
*1042 clk\[457\]
*1043 clk\[458\]
*1044 clk\[459\]
*1045 clk\[45\]
*1046 clk\[460\]
*1047 clk\[461\]
*1048 clk\[462\]
*1049 clk\[463\]
*1050 clk\[464\]
*1051 clk\[465\]
*1052 clk\[466\]
*1053 clk\[467\]
*1054 clk\[468\]
*1055 clk\[469\]
*1056 clk\[46\]
*1057 clk\[470\]
*1058 clk\[471\]
*1059 clk\[472\]
*1060 clk\[473\]
*1061 clk\[474\]
*1062 clk\[475\]
*1063 clk\[476\]
*1064 clk\[477\]
*1065 clk\[478\]
*1066 clk\[479\]
*1067 clk\[47\]
*1068 clk\[480\]
*1069 clk\[481\]
*1070 clk\[482\]
*1071 clk\[483\]
*1072 clk\[484\]
*1073 clk\[485\]
*1074 clk\[486\]
*1075 clk\[487\]
*1076 clk\[488\]
*1077 clk\[489\]
*1078 clk\[48\]
*1079 clk\[490\]
*1080 clk\[491\]
*1081 clk\[492\]
*1082 clk\[493\]
*1083 clk\[494\]
*1084 clk\[495\]
*1085 clk\[496\]
*1086 clk\[497\]
*1087 clk\[498\]
*1088 clk\[49\]
*1089 clk\[4\]
*1090 clk\[50\]
*1091 clk\[51\]
*1092 clk\[52\]
*1093 clk\[53\]
*1094 clk\[54\]
*1095 clk\[55\]
*1096 clk\[56\]
*1097 clk\[57\]
*1098 clk\[58\]
*1099 clk\[59\]
*1100 clk\[5\]
*1101 clk\[60\]
*1102 clk\[61\]
*1103 clk\[62\]
*1104 clk\[63\]
*1105 clk\[64\]
*1106 clk\[65\]
*1107 clk\[66\]
*1108 clk\[67\]
*1109 clk\[68\]
*1110 clk\[69\]
*1111 clk\[6\]
*1112 clk\[70\]
*1113 clk\[71\]
*1114 clk\[72\]
*1115 clk\[73\]
*1116 clk\[74\]
*1117 clk\[75\]
*1118 clk\[76\]
*1119 clk\[77\]
*1120 clk\[78\]
*1121 clk\[79\]
*1122 clk\[7\]
*1123 clk\[80\]
*1124 clk\[81\]
*1125 clk\[82\]
*1126 clk\[83\]
*1127 clk\[84\]
*1128 clk\[85\]
*1129 clk\[86\]
*1130 clk\[87\]
*1131 clk\[88\]
*1132 clk\[89\]
*1133 clk\[8\]
*1134 clk\[90\]
*1135 clk\[91\]
*1136 clk\[92\]
*1137 clk\[93\]
*1138 clk\[94\]
*1139 clk\[95\]
*1140 clk\[96\]
*1141 clk\[97\]
*1142 clk\[98\]
*1143 clk\[99\]
*1144 clk\[9\]
*1145 data\[0\]
*1146 data\[100\]
*1147 data\[101\]
*1148 data\[102\]
*1149 data\[103\]
*1150 data\[104\]
*1151 data\[105\]
*1152 data\[106\]
*1153 data\[107\]
*1154 data\[108\]
*1155 data\[109\]
*1156 data\[10\]
*1157 data\[110\]
*1158 data\[111\]
*1159 data\[112\]
*1160 data\[113\]
*1161 data\[114\]
*1162 data\[115\]
*1163 data\[116\]
*1164 data\[117\]
*1165 data\[118\]
*1166 data\[119\]
*1167 data\[11\]
*1168 data\[120\]
*1169 data\[121\]
*1170 data\[122\]
*1171 data\[123\]
*1172 data\[124\]
*1173 data\[125\]
*1174 data\[126\]
*1175 data\[127\]
*1176 data\[128\]
*1177 data\[129\]
*1178 data\[12\]
*1179 data\[130\]
*1180 data\[131\]
*1181 data\[132\]
*1182 data\[133\]
*1183 data\[134\]
*1184 data\[135\]
*1185 data\[136\]
*1186 data\[137\]
*1187 data\[138\]
*1188 data\[139\]
*1189 data\[13\]
*1190 data\[140\]
*1191 data\[141\]
*1192 data\[142\]
*1193 data\[143\]
*1194 data\[144\]
*1195 data\[145\]
*1196 data\[146\]
*1197 data\[147\]
*1198 data\[148\]
*1199 data\[149\]
*1200 data\[14\]
*1201 data\[150\]
*1202 data\[151\]
*1203 data\[152\]
*1204 data\[153\]
*1205 data\[154\]
*1206 data\[155\]
*1207 data\[156\]
*1208 data\[157\]
*1209 data\[158\]
*1210 data\[159\]
*1211 data\[15\]
*1212 data\[160\]
*1213 data\[161\]
*1214 data\[162\]
*1215 data\[163\]
*1216 data\[164\]
*1217 data\[165\]
*1218 data\[166\]
*1219 data\[167\]
*1220 data\[168\]
*1221 data\[169\]
*1222 data\[16\]
*1223 data\[170\]
*1224 data\[171\]
*1225 data\[172\]
*1226 data\[173\]
*1227 data\[174\]
*1228 data\[175\]
*1229 data\[176\]
*1230 data\[177\]
*1231 data\[178\]
*1232 data\[179\]
*1233 data\[17\]
*1234 data\[180\]
*1235 data\[181\]
*1236 data\[182\]
*1237 data\[183\]
*1238 data\[184\]
*1239 data\[185\]
*1240 data\[186\]
*1241 data\[187\]
*1242 data\[188\]
*1243 data\[189\]
*1244 data\[18\]
*1245 data\[190\]
*1246 data\[191\]
*1247 data\[192\]
*1248 data\[193\]
*1249 data\[194\]
*1250 data\[195\]
*1251 data\[196\]
*1252 data\[197\]
*1253 data\[198\]
*1254 data\[199\]
*1255 data\[19\]
*1256 data\[1\]
*1257 data\[200\]
*1258 data\[201\]
*1259 data\[202\]
*1260 data\[203\]
*1261 data\[204\]
*1262 data\[205\]
*1263 data\[206\]
*1264 data\[207\]
*1265 data\[208\]
*1266 data\[209\]
*1267 data\[20\]
*1268 data\[210\]
*1269 data\[211\]
*1270 data\[212\]
*1271 data\[213\]
*1272 data\[214\]
*1273 data\[215\]
*1274 data\[216\]
*1275 data\[217\]
*1276 data\[218\]
*1277 data\[219\]
*1278 data\[21\]
*1279 data\[220\]
*1280 data\[221\]
*1281 data\[222\]
*1282 data\[223\]
*1283 data\[224\]
*1284 data\[225\]
*1285 data\[226\]
*1286 data\[227\]
*1287 data\[228\]
*1288 data\[229\]
*1289 data\[22\]
*1290 data\[230\]
*1291 data\[231\]
*1292 data\[232\]
*1293 data\[233\]
*1294 data\[234\]
*1295 data\[235\]
*1296 data\[236\]
*1297 data\[237\]
*1298 data\[238\]
*1299 data\[239\]
*1300 data\[23\]
*1301 data\[240\]
*1302 data\[241\]
*1303 data\[242\]
*1304 data\[243\]
*1305 data\[244\]
*1306 data\[245\]
*1307 data\[246\]
*1308 data\[247\]
*1309 data\[248\]
*1310 data\[249\]
*1311 data\[24\]
*1312 data\[250\]
*1313 data\[251\]
*1314 data\[252\]
*1315 data\[253\]
*1316 data\[254\]
*1317 data\[255\]
*1318 data\[256\]
*1319 data\[257\]
*1320 data\[258\]
*1321 data\[259\]
*1322 data\[25\]
*1323 data\[260\]
*1324 data\[261\]
*1325 data\[262\]
*1326 data\[263\]
*1327 data\[264\]
*1328 data\[265\]
*1329 data\[266\]
*1330 data\[267\]
*1331 data\[268\]
*1332 data\[269\]
*1333 data\[26\]
*1334 data\[270\]
*1335 data\[271\]
*1336 data\[272\]
*1337 data\[273\]
*1338 data\[274\]
*1339 data\[275\]
*1340 data\[276\]
*1341 data\[277\]
*1342 data\[278\]
*1343 data\[279\]
*1344 data\[27\]
*1345 data\[280\]
*1346 data\[281\]
*1347 data\[282\]
*1348 data\[283\]
*1349 data\[284\]
*1350 data\[285\]
*1351 data\[286\]
*1352 data\[287\]
*1353 data\[288\]
*1354 data\[289\]
*1355 data\[28\]
*1356 data\[290\]
*1357 data\[291\]
*1358 data\[292\]
*1359 data\[293\]
*1360 data\[294\]
*1361 data\[295\]
*1362 data\[296\]
*1363 data\[297\]
*1364 data\[298\]
*1365 data\[299\]
*1366 data\[29\]
*1367 data\[2\]
*1368 data\[300\]
*1369 data\[301\]
*1370 data\[302\]
*1371 data\[303\]
*1372 data\[304\]
*1373 data\[305\]
*1374 data\[306\]
*1375 data\[307\]
*1376 data\[308\]
*1377 data\[309\]
*1378 data\[30\]
*1379 data\[310\]
*1380 data\[311\]
*1381 data\[312\]
*1382 data\[313\]
*1383 data\[314\]
*1384 data\[315\]
*1385 data\[316\]
*1386 data\[317\]
*1387 data\[318\]
*1388 data\[319\]
*1389 data\[31\]
*1390 data\[320\]
*1391 data\[321\]
*1392 data\[322\]
*1393 data\[323\]
*1394 data\[324\]
*1395 data\[325\]
*1396 data\[326\]
*1397 data\[327\]
*1398 data\[328\]
*1399 data\[329\]
*1400 data\[32\]
*1401 data\[330\]
*1402 data\[331\]
*1403 data\[332\]
*1404 data\[333\]
*1405 data\[334\]
*1406 data\[335\]
*1407 data\[336\]
*1408 data\[337\]
*1409 data\[338\]
*1410 data\[339\]
*1411 data\[33\]
*1412 data\[340\]
*1413 data\[341\]
*1414 data\[342\]
*1415 data\[343\]
*1416 data\[344\]
*1417 data\[345\]
*1418 data\[346\]
*1419 data\[347\]
*1420 data\[348\]
*1421 data\[349\]
*1422 data\[34\]
*1423 data\[350\]
*1424 data\[351\]
*1425 data\[352\]
*1426 data\[353\]
*1427 data\[354\]
*1428 data\[355\]
*1429 data\[356\]
*1430 data\[357\]
*1431 data\[358\]
*1432 data\[359\]
*1433 data\[35\]
*1434 data\[360\]
*1435 data\[361\]
*1436 data\[362\]
*1437 data\[363\]
*1438 data\[364\]
*1439 data\[365\]
*1440 data\[366\]
*1441 data\[367\]
*1442 data\[368\]
*1443 data\[369\]
*1444 data\[36\]
*1445 data\[370\]
*1446 data\[371\]
*1447 data\[372\]
*1448 data\[373\]
*1449 data\[374\]
*1450 data\[375\]
*1451 data\[376\]
*1452 data\[377\]
*1453 data\[378\]
*1454 data\[379\]
*1455 data\[37\]
*1456 data\[380\]
*1457 data\[381\]
*1458 data\[382\]
*1459 data\[383\]
*1460 data\[384\]
*1461 data\[385\]
*1462 data\[386\]
*1463 data\[387\]
*1464 data\[388\]
*1465 data\[389\]
*1466 data\[38\]
*1467 data\[390\]
*1468 data\[391\]
*1469 data\[392\]
*1470 data\[393\]
*1471 data\[394\]
*1472 data\[395\]
*1473 data\[396\]
*1474 data\[397\]
*1475 data\[398\]
*1476 data\[399\]
*1477 data\[39\]
*1478 data\[3\]
*1479 data\[400\]
*1480 data\[401\]
*1481 data\[402\]
*1482 data\[403\]
*1483 data\[404\]
*1484 data\[405\]
*1485 data\[406\]
*1486 data\[407\]
*1487 data\[408\]
*1488 data\[409\]
*1489 data\[40\]
*1490 data\[410\]
*1491 data\[411\]
*1492 data\[412\]
*1493 data\[413\]
*1494 data\[414\]
*1495 data\[415\]
*1496 data\[416\]
*1497 data\[417\]
*1498 data\[418\]
*1499 data\[419\]
*1500 data\[41\]
*1501 data\[420\]
*1502 data\[421\]
*1503 data\[422\]
*1504 data\[423\]
*1505 data\[424\]
*1506 data\[425\]
*1507 data\[426\]
*1508 data\[427\]
*1509 data\[428\]
*1510 data\[429\]
*1511 data\[42\]
*1512 data\[430\]
*1513 data\[431\]
*1514 data\[432\]
*1515 data\[433\]
*1516 data\[434\]
*1517 data\[435\]
*1518 data\[436\]
*1519 data\[437\]
*1520 data\[438\]
*1521 data\[439\]
*1522 data\[43\]
*1523 data\[440\]
*1524 data\[441\]
*1525 data\[442\]
*1526 data\[443\]
*1527 data\[444\]
*1528 data\[445\]
*1529 data\[446\]
*1530 data\[447\]
*1531 data\[448\]
*1532 data\[449\]
*1533 data\[44\]
*1534 data\[450\]
*1535 data\[451\]
*1536 data\[452\]
*1537 data\[453\]
*1538 data\[454\]
*1539 data\[455\]
*1540 data\[456\]
*1541 data\[457\]
*1542 data\[458\]
*1543 data\[459\]
*1544 data\[45\]
*1545 data\[460\]
*1546 data\[461\]
*1547 data\[462\]
*1548 data\[463\]
*1549 data\[464\]
*1550 data\[465\]
*1551 data\[466\]
*1552 data\[467\]
*1553 data\[468\]
*1554 data\[469\]
*1555 data\[46\]
*1556 data\[470\]
*1557 data\[471\]
*1558 data\[472\]
*1559 data\[473\]
*1560 data\[474\]
*1561 data\[475\]
*1562 data\[476\]
*1563 data\[477\]
*1564 data\[478\]
*1565 data\[479\]
*1566 data\[47\]
*1567 data\[480\]
*1568 data\[481\]
*1569 data\[482\]
*1570 data\[483\]
*1571 data\[484\]
*1572 data\[485\]
*1573 data\[486\]
*1574 data\[487\]
*1575 data\[488\]
*1576 data\[489\]
*1577 data\[48\]
*1578 data\[490\]
*1579 data\[491\]
*1580 data\[492\]
*1581 data\[493\]
*1582 data\[494\]
*1583 data\[495\]
*1584 data\[496\]
*1585 data\[497\]
*1586 data\[498\]
*1587 data\[49\]
*1588 data\[4\]
*1589 data\[50\]
*1590 data\[51\]
*1591 data\[52\]
*1592 data\[53\]
*1593 data\[54\]
*1594 data\[55\]
*1595 data\[56\]
*1596 data\[57\]
*1597 data\[58\]
*1598 data\[59\]
*1599 data\[5\]
*1600 data\[60\]
*1601 data\[61\]
*1602 data\[62\]
*1603 data\[63\]
*1604 data\[64\]
*1605 data\[65\]
*1606 data\[66\]
*1607 data\[67\]
*1608 data\[68\]
*1609 data\[69\]
*1610 data\[6\]
*1611 data\[70\]
*1612 data\[71\]
*1613 data\[72\]
*1614 data\[73\]
*1615 data\[74\]
*1616 data\[75\]
*1617 data\[76\]
*1618 data\[77\]
*1619 data\[78\]
*1620 data\[79\]
*1621 data\[7\]
*1622 data\[80\]
*1623 data\[81\]
*1624 data\[82\]
*1625 data\[83\]
*1626 data\[84\]
*1627 data\[85\]
*1628 data\[86\]
*1629 data\[87\]
*1630 data\[88\]
*1631 data\[89\]
*1632 data\[8\]
*1633 data\[90\]
*1634 data\[91\]
*1635 data\[92\]
*1636 data\[93\]
*1637 data\[94\]
*1638 data\[95\]
*1639 data\[96\]
*1640 data\[97\]
*1641 data\[98\]
*1642 data\[99\]
*1643 data\[9\]
*1644 latch\[0\]
*1645 latch\[100\]
*1646 latch\[101\]
*1647 latch\[102\]
*1648 latch\[103\]
*1649 latch\[104\]
*1650 latch\[105\]
*1651 latch\[106\]
*1652 latch\[107\]
*1653 latch\[108\]
*1654 latch\[109\]
*1655 latch\[10\]
*1656 latch\[110\]
*1657 latch\[111\]
*1658 latch\[112\]
*1659 latch\[113\]
*1660 latch\[114\]
*1661 latch\[115\]
*1662 latch\[116\]
*1663 latch\[117\]
*1664 latch\[118\]
*1665 latch\[119\]
*1666 latch\[11\]
*1667 latch\[120\]
*1668 latch\[121\]
*1669 latch\[122\]
*1670 latch\[123\]
*1671 latch\[124\]
*1672 latch\[125\]
*1673 latch\[126\]
*1674 latch\[127\]
*1675 latch\[128\]
*1676 latch\[129\]
*1677 latch\[12\]
*1678 latch\[130\]
*1679 latch\[131\]
*1680 latch\[132\]
*1681 latch\[133\]
*1682 latch\[134\]
*1683 latch\[135\]
*1684 latch\[136\]
*1685 latch\[137\]
*1686 latch\[138\]
*1687 latch\[139\]
*1688 latch\[13\]
*1689 latch\[140\]
*1690 latch\[141\]
*1691 latch\[142\]
*1692 latch\[143\]
*1693 latch\[144\]
*1694 latch\[145\]
*1695 latch\[146\]
*1696 latch\[147\]
*1697 latch\[148\]
*1698 latch\[149\]
*1699 latch\[14\]
*1700 latch\[150\]
*1701 latch\[151\]
*1702 latch\[152\]